
Circuit: * file: pulsegen.sp

Doing analysis at TEMP = 105.000000 and TNOM = 27.000000

No. of Data Columns : 10  

Initial Transient Solution
--------------------------

Node                                   Voltage
----                                   -------
vdd                                        2.5
net_1                              2.48171e-07
net_4                                      2.5
net_2                                        0
net_3                                      2.5
uc_net_5                                   2.5
xnand2.net_1                           2.12856
v_1#branch                                   0
vdd#branch                        -4.28947e-09


No. of Data Rows : 1641
Options:

+ acct
  brief
  history	10000
+ lvltim	2
  noglob
+ opts
+ post
+ post_version	9007
  program	ngspice
  prompt	ngspice ! -> 
  rawfile	pulsegen.raw
  sourcepath	( . /usr/local/share/ngspice/scripts )
+ temp	105

Total CPU time: 0.039 seconds.
CPU time since last call: 0.039 seconds.
Total DRAM available = 31836.910156 MB.
DRAM currently available = 26190.160156 MB.
Total ngspice program size = 4.116211 MB.
Resident set size = 1.775391 MB.
Shared ngspice pages = 1.580078 MB.
Text (code) pages = 1.222656 MB.
Stack = 0 bytes.
Library pages = 383.000 kB.
0 page faults, 21 vol + 5 invol = 26 context switches.

Number of lines in the deck = 27
Netlist loading time = 0.000229
Netlist parsing time = 0.000313

Nominal temperature = 27
Operating temperature = 105
Total iterations = 3426
Transient iterations = 3405
Circuit Equations = 10
Circuit original non-zeroes = 37
Circuit fill-in non-zeroes = 0
Circuit total non-zeroes = 37
Transient timepoints = 1641
Accepted timepoints = 1641
Rejected timepoints = 0
Total analysis time = 0.022708
Matrix load time = 0.014893
Matrix synchronize time = 0
Matrix reorder time = 1.1E-05
Matrix factor time = 0.000855
Matrix solve time = 0.000865
Transient analysis time = 0.022045
Transient load time = 0.014755
Transient sync time = 0
Transient factor time = 0.000843
Transient solve time = 0.000853
Transient trunc time = 0.001185
Transient iters per point = 0
AC analysis time = 0
AC load time = 0
AC sync time = 0
AC factor time = 0
AC solve time = 0

