
Circuit: * file: pulsegen.sp

Doing analysis at TEMP = 105.000000 and TNOM = 27.000000

No. of Data Columns : 10  

Initial Transient Solution
--------------------------

Node                                   Voltage
----                                   -------
vdd                                        2.5
net_1                              2.48171e-07
net_2                                      2.5
in                                           0
out0_h                                     2.5
out1_h                                     2.5
xnand2.net_1                           2.12856
v_1#branch                                   0
vdd#branch                        -4.28947e-09


No. of Data Rows : 1641
Options:

+ acct
  brief
  history	10000
+ lvltim	2
  noglob
+ opts
+ post
+ post_version	9007
  program	ngspice
  prompt	ngspice ! -> 
  rawfile	pulsegen.raw
  sourcepath	( . /usr/local/share/ngspice/scripts )
+ temp	105

Total CPU time: 0.027 seconds.
CPU time since last call: 0.027 seconds.
Total DRAM available = 31836.910156 MB.
DRAM currently available = 26096.144531 MB.
Total ngspice program size = 4.116211 MB.
Resident set size = 1.769531 MB.
Shared ngspice pages = 1.569336 MB.
Text (code) pages = 1.222656 MB.
Stack = 0 bytes.
Library pages = 383.000 kB.
0 page faults, 23 vol + 3 invol = 26 context switches.

Number of lines in the deck = 27
Netlist loading time = 0.000157
Netlist parsing time = 0.000165

Nominal temperature = 27
Operating temperature = 105
Total iterations = 3426
Transient iterations = 3405
Circuit Equations = 10
Circuit original non-zeroes = 37
Circuit fill-in non-zeroes = 0
Circuit total non-zeroes = 37
Transient timepoints = 1641
Accepted timepoints = 1641
Rejected timepoints = 0
Total analysis time = 0.014502
Matrix load time = 0.009412
Matrix synchronize time = 0
Matrix reorder time = 7E-06
Matrix factor time = 0.000551
Matrix solve time = 0.000535
Transient analysis time = 0.013989
Transient load time = 0.009345
Transient sync time = 0
Transient factor time = 0.000547
Transient solve time = 0.000521
Transient trunc time = 0.000767
Transient iters per point = 0
AC analysis time = 0
AC load time = 0
AC sync time = 0
AC factor time = 0
AC solve time = 0

