
Circuit: * file: p4.sp

Doing analysis at TEMP = 105.000000 and TNOM = 27.000000

No. of Data Columns : 27  

Initial Transient Solution
--------------------------

Node                                   Voltage
----                                   -------
vdd                                        2.5
net_3                                      2.5
net_9                                        0
net_11                             2.48164e-07
net_4                                      2.5
net_1                               -0.0207318
net_5                                0.0197029
net_15                              -0.0113348
net_6                                        0
net_7                              1.53242e-07
net_13                                     2.5
net_16                                     2.5
net_10                                     2.5
net_12                                     2.5
net_8                                  1.21132
net_14                                       0
net_2                                  1.21132
vword#branch                                 0
vwrite#branch                                0
vprecharge#branch                            0
v_5#branch                                   0
v_4#branch                        -6.70557e-10
v_3#branch                        -0.000185268
v_2#branch                        -0.000185269
v_1#branch                        -6.76685e-10
vdd#branch                        -1.31669e-09


No. of Data Rows : 10086
No. of Data Columns : 27  

Initial Transient Solution
--------------------------

Node                                   Voltage
----                                   -------
vdd                                        2.5
net_3                                      2.5
net_9                                        0
net_11                             2.48164e-07
net_4                                      2.5
net_1                               -0.0207318
net_5                                0.0197029
net_15                              -0.0113348
net_6                                        0
net_7                              1.53242e-07
net_13                                     2.5
net_16                                     2.5
net_10                                     2.5
net_12                                     2.5
net_8                                  1.21132
net_14                                       0
net_2                                  1.21132
vword#branch                                 0
vwrite#branch                                0
vprecharge#branch                            0
v_5#branch                                   0
v_4#branch                        -6.70557e-10
v_3#branch                        -0.000185268
v_2#branch                        -0.000185269
v_1#branch                        -6.76685e-10
vdd#branch                        -1.31669e-09


No. of Data Rows : 1623
Options:

+ acct
  brief
  history	10000
+ lvltim	2
  noglob
+ opts
+ post
+ post_version	9007
  program	ngspice
  prompt	ngspice ! -> 
  rawfile	P4.raw
  sourcepath	( . /usr/local/share/ngspice/scripts )
+ temp	105

Total CPU time: 0.235 seconds.
CPU time since last call: 0.235 seconds.
Total DRAM available = 31836.914062 MB.
DRAM currently available = 13101.714844 MB.
Total ngspice program size = 4.116211 MB.
Resident set size = 1.749023 MB.
Shared ngspice pages = 1.548828 MB.
Text (code) pages = 1.222656 MB.
Stack = 0 bytes.
Library pages = 383.000 kB.
0 page faults, 73 vol + 3 invol = 76 context switches.

Number of lines in the deck = 39
Netlist loading time = 7.1E-05
Netlist parsing time = 0.000106

Nominal temperature = 27
Operating temperature = 105
Total iterations = 23849
Transient iterations = 23551
Circuit Equations = 27
Circuit original non-zeroes = 113
Circuit fill-in non-zeroes = 4
Circuit total non-zeroes = 117
Transient timepoints = 11709
Accepted timepoints = 11709
Rejected timepoints = 0
Total analysis time = 0.191375
Matrix load time = 0.137979
Matrix synchronize time = 0
Matrix reorder time = 9E-06
Matrix factor time = 0.007485
Matrix solve time = 0.006475
Transient analysis time = 0.189099
Transient load time = 0.136891
Transient sync time = 0
Transient factor time = 0.007412
Transient solve time = 0.006408
Transient trunc time = 0.010148
Transient iters per point = 0
AC analysis time = 0
AC load time = 0
AC sync time = 0
AC factor time = 0
AC solve time = 0

